<?xml version="1.0" encoding="UTF-8"?>

<!-- generated on 2025-04-17 23:20:45 by Eclipse SUMO netconvert Version 1.22.0
<netconvertConfiguration xmlns:xsi="http://www.w3.org/2001/XMLSchema-instance" xsi:noNamespaceSchemaLocation="http://sumo.dlr.de/xsd/netconvertConfiguration.xsd">

    <input>
        <node-files value="nodes.xml"/>
        <edge-files value="edges.xml"/>
    </input>

    <output>
        <output-file value="network.net.xml"/>
    </output>

</netconvertConfiguration>
-->

<net version="1.20" junctionCornerDetail="5" limitTurnSpeed="15.50" xmlns:xsi="http://www.w3.org/2001/XMLSchema-instance" xsi:noNamespaceSchemaLocation="http://sumo.dlr.de/xsd/net_file.xsd">

    <location netOffset="0.00,0.00" convBoundary="0.00,0.00,200.00,200.00" origBoundary="0.00,0.00,200.00,200.00" projParameter="!"/>

    <edge id=":1_0" function="internal">
        <lane id=":1_0_0" index="0" speed="10.37" length="39.31" shape="20.35,186.44 10.98,192.28 1.79,192.48 -5.22,187.39 -8.00,177.35"/>
        <lane id=":1_0_1" index="1" speed="9.34" length="31.53" shape="18.09,184.18 10.55,188.93 3.12,189.26 -2.54,185.33 -4.80,177.35"/>
        <lane id=":1_0_2" index="2" speed="8.76" length="27.52" shape="18.09,184.18 11.56,188.19 5.17,188.17 0.32,184.45 -1.60,177.35"/>
    </edge>
    <edge id=":1_3" function="internal">
        <lane id=":1_3_0" index="0" speed="5.47" length="9.74" shape="8.00,177.35 8.35,180.44 9.39,181.86 11.13,181.59 13.56,179.65"/>
        <lane id=":1_3_1" index="1" speed="7.42" length="19.31" shape="4.80,177.35 5.49,183.48 7.56,186.28 11.00,185.76 15.82,181.91"/>
    </edge>
    <edge id=":2_0" function="internal">
        <lane id=":2_0_0" index="0" speed="14.87" length="51.57" shape="-8.00,127.18 -6.00,113.19 -0.01,103.19 9.99,97.20 23.98,95.20"/>
        <lane id=":2_0_1" index="1" speed="14.12" length="46.41" shape="-4.80,127.18 -3.00,114.59 2.39,105.59 11.39,100.20 23.98,98.40"/>
    </edge>
    <edge id=":2_2" function="internal">
        <lane id=":2_2_0" index="0" speed="9.86" length="35.32" shape="-1.60,127.18 0.71,117.66 6.57,111.99 14.40,111.08 22.61,115.82"/>
        <lane id=":2_2_1" index="1" speed="9.32" length="31.38" shape="-1.60,127.18 0.52,118.88 5.87,114.18 12.98,113.71 20.35,118.09"/>
    </edge>
    <edge id=":2_4" function="internal">
        <lane id=":2_4_0" index="0" speed="3.65" length="4.67" shape="-1.60,127.18 -0.80,125.98 0.00,125.58 0.80,125.98 1.60,127.18"/>
    </edge>
    <edge id=":2_5" function="internal">
        <lane id=":2_5_0" index="0" speed="5.47" length="9.74" shape="13.56,124.87 11.13,122.93 9.39,122.67 8.35,124.08 8.00,127.18"/>
    </edge>
    <edge id=":2_6" function="internal">
        <lane id=":2_6_0" index="0" speed="10.18" length="37.76" shape="15.82,122.61 10.12,113.59 9.73,104.69 14.42,97.90 23.98,95.20"/>
        <lane id=":2_6_1" index="1" speed="9.12" length="30.00" shape="18.09,120.35 13.46,113.15 12.95,106.03 16.47,100.57 23.98,98.40"/>
    </edge>
    <edge id=":2_8" function="internal">
        <lane id=":2_8_0" index="0" speed="3.65" length="4.67" shape="18.09,120.35 17.80,118.93 18.09,118.09 18.93,117.80 20.35,118.09"/>
    </edge>
    <edge id=":2_9" function="internal">
        <lane id=":2_9_0" index="0" speed="6.18" length="12.88" shape="23.98,104.80 21.08,105.35 20.27,106.99 21.53,109.73 24.87,113.56"/>
    </edge>
    <edge id=":2_10" function="internal">
        <lane id=":2_10_0" index="0" speed="12.06" length="33.55" shape="23.98,104.80 15.59,106.20 9.59,110.39 6.00,117.39 4.80,127.18"/>
        <lane id=":2_10_1" index="1" speed="12.92" length="38.70" shape="23.98,101.60 14.19,103.20 7.19,107.99 3.00,115.99 1.60,127.18"/>
    </edge>
    <edge id=":2_12" function="internal">
        <lane id=":2_12_0" index="0" speed="3.65" length="4.67" shape="23.98,101.60 22.78,100.80 22.38,100.00 22.78,99.20 23.98,98.40"/>
    </edge>
    <edge id=":3_0" function="internal">
        <lane id=":3_0_0" index="0" speed="14.65" length="20.01" shape="102.43,211.20 100.52,210.40 97.34,208.02 92.89,204.04 87.16,198.47"/>
        <lane id=":3_0_1" index="1" speed="13.76" length="17.60" shape="102.43,208.00 101.16,207.26 98.57,205.05 94.66,201.37 89.42,196.21"/>
        <lane id=":3_0_2" index="2" speed="12.85" length="15.30" shape="102.43,204.80 100.43,203.20 96.95,199.64 93.52,195.94 91.69,193.95"/>
    </edge>
    <edge id=":3_3" function="internal">
        <lane id=":3_3_0" index="0" speed="7.11" length="4.40" shape="98.47,187.16 99.34,187.88 100.28,188.39 101.32,188.70 102.43,188.80"/>
        <lane id=":3_3_1" index="1" speed="8.78" length="6.91" shape="96.21,189.42 97.57,190.55 99.06,191.36 100.68,191.84 102.43,192.00"/>
        <lane id=":3_3_2" index="2" speed="10.17" length="9.43" shape="93.95,191.69 95.80,193.22 97.83,194.32 100.04,194.98 102.43,195.20"/>
        <lane id=":3_3_3" index="3" speed="10.91" length="10.92" shape="93.95,191.69 97.00,194.62 99.43,196.72 101.24,197.98 102.43,198.40"/>
    </edge>
    <edge id=":4_0" function="internal">
        <lane id=":4_0_0" index="0" speed="12.38" length="35.45" shape="204.80,183.20 203.85,195.45 201.00,204.20 196.25,209.45 189.60,211.20"/>
        <lane id=":4_0_1" index="1" speed="11.49" length="30.39" shape="201.60,183.20 200.85,194.05 198.60,201.80 194.85,206.45 189.60,208.00"/>
        <lane id=":4_0_2" index="2" speed="10.96" length="27.54" shape="201.60,183.20 200.85,192.65 198.60,199.40 194.85,203.45 189.60,204.80"/>
        <lane id=":4_0_3" index="3" speed="10.41" length="24.73" shape="201.60,183.20 200.85,191.25 198.60,197.00 194.85,200.45 189.60,201.60"/>
    </edge>
    <edge id=":4_4" function="internal">
        <lane id=":4_4_0" index="0" speed="6.51" length="9.03" shape="189.60,188.80 192.05,188.45 193.80,187.40 194.85,185.65 195.20,183.20"/>
        <lane id=":4_4_1" index="1" speed="8.00" length="14.19" shape="189.60,192.00 193.45,191.45 196.20,189.80 197.85,187.05 198.40,183.20"/>
    </edge>
    <edge id=":5_0" function="internal">
        <lane id=":5_0_0" index="0" speed="6.51" length="9.03" shape="195.20,110.40 194.85,107.95 193.80,106.20 192.05,105.15 189.60,104.80"/>
        <lane id=":5_0_1" index="1" speed="8.00" length="14.19" shape="198.40,110.40 197.85,106.55 196.20,103.80 193.45,102.15 189.60,101.60"/>
    </edge>
    <edge id=":5_2" function="internal">
        <lane id=":5_2_0" index="0" speed="17.90" length="20.96" shape="198.40,110.40 197.90,104.34 196.80,100.00 195.70,95.66 195.20,89.60"/>
        <lane id=":5_2_1" index="1" speed="17.90" length="20.96" shape="198.40,110.40 198.40,89.60"/>
    </edge>
    <edge id=":5_4" function="internal">
        <lane id=":5_4_0" index="0" speed="3.65" length="4.67" shape="198.40,110.40 199.20,109.20 200.00,108.80 200.80,109.20 201.60,110.40"/>
    </edge>
    <edge id=":5_5" function="internal">
        <lane id=":5_5_0" index="0" speed="17.90" length="20.80" shape="204.80,89.60 204.80,110.40"/>
        <lane id=":5_5_1" index="1" speed="17.90" length="20.80" shape="201.60,89.60 201.60,110.40"/>
    </edge>
    <edge id=":5_7" function="internal">
        <lane id=":5_7_0" index="0" speed="9.26" length="19.35" shape="201.60,89.60 200.85,94.85 198.60,98.60 194.85,100.85 189.60,101.60"/>
    </edge>
    <edge id=":5_8" function="internal">
        <lane id=":5_8_0" index="0" speed="3.65" length="4.67" shape="201.60,89.60 200.80,90.80 200.00,91.20 199.20,90.80 198.40,89.60"/>
    </edge>
    <edge id=":5_9" function="internal">
        <lane id=":5_9_0" index="0" speed="6.51" length="9.03" shape="189.60,95.20 192.05,94.85 193.80,93.80 194.85,92.05 195.20,89.60"/>
        <lane id=":5_9_1" index="1" speed="8.00" length="14.19" shape="189.60,98.40 193.45,97.85 196.20,96.20 197.85,93.45 198.40,89.60"/>
    </edge>
    <edge id=":5_11" function="internal">
        <lane id=":5_11_0" index="0" speed="9.26" length="19.35" shape="189.60,98.40 194.85,99.15 198.60,101.40 200.85,105.15 201.60,110.40"/>
    </edge>
    <edge id=":5_12" function="internal">
        <lane id=":5_12_0" index="0" speed="3.65" length="4.67" shape="189.60,98.40 190.80,99.20 191.20,100.00 190.80,100.80 189.60,101.60"/>
    </edge>
    <edge id=":6_0" function="internal">
        <lane id=":6_0_0" index="0" speed="4.12" length="4.78" shape="195.20,15.45 195.03,13.93 194.52,13.24 193.66,13.37 192.47,14.32"/>
        <lane id=":6_0_1" index="1" speed="6.49" length="14.35" shape="198.40,15.45 197.89,10.89 196.35,8.81 193.79,9.20 190.21,12.06"/>
    </edge>
    <edge id=":6_2" function="internal">
        <lane id=":6_2_0" index="0" speed="8.73" length="27.33" shape="185.68,7.53 192.10,3.72 198.29,4.13 202.96,8.22 204.80,15.45"/>
        <lane id=":6_2_1" index="1" speed="8.20" length="23.92" shape="187.94,9.79 193.92,5.03 198.19,4.38 200.75,7.85 201.60,15.45"/>
    </edge>

    <edge id="1to2" from="1" to="2" priority="2">
        <lane id="1to2_0" index="0" speed="17.90" length="50.17" shape="-8.00,177.35 -8.00,127.18"/>
        <lane id="1to2_1" index="1" speed="17.90" length="50.17" shape="-4.80,177.35 -4.80,127.18"/>
        <lane id="1to2_2" index="2" speed="17.90" length="50.17" shape="-1.60,177.35 -1.60,127.18"/>
    </edge>
    <edge id="1to6" from="1" to="6" priority="4">
        <lane id="1to6_0" index="0" speed="17.90" length="243.42" shape="13.56,179.65 185.68,7.53"/>
        <lane id="1to6_1" index="1" speed="17.90" length="243.42" shape="15.82,181.91 187.94,9.79"/>
    </edge>
    <edge id="2to1" from="2" to="1" priority="2">
        <lane id="2to1_0" index="0" speed="17.90" length="50.17" shape="8.00,127.18 8.00,177.35"/>
        <lane id="2to1_1" index="1" speed="17.90" length="50.17" shape="4.80,127.18 4.80,177.35"/>
        <lane id="2to1_2" index="2" speed="17.90" length="50.17" shape="1.60,127.18 1.60,177.35"/>
    </edge>
    <edge id="2to3" from="2" to="3" priority="2">
        <lane id="2to3_0" index="0" speed="17.90" length="104.09" shape="24.87,113.56 98.47,187.16"/>
        <lane id="2to3_1" index="1" speed="17.90" length="104.09" shape="22.61,115.82 96.21,189.42"/>
        <lane id="2to3_2" index="2" speed="17.90" length="104.09" shape="20.35,118.09 93.95,191.69"/>
    </edge>
    <edge id="2to5" from="2" to="5" priority="3">
        <lane id="2to5_0" index="0" speed="17.90" length="165.62" shape="23.98,95.20 189.60,95.20"/>
        <lane id="2to5_1" index="1" speed="17.90" length="165.62" shape="23.98,98.40 189.60,98.40"/>
    </edge>
    <edge id="3to2" from="3" to="2" priority="2">
        <lane id="3to2_0" index="0" speed="17.90" length="104.09" shape="87.16,198.47 13.56,124.87"/>
        <lane id="3to2_1" index="1" speed="17.90" length="104.09" shape="89.42,196.21 15.82,122.61"/>
        <lane id="3to2_2" index="2" speed="17.90" length="104.09" shape="91.69,193.95 18.09,120.35"/>
    </edge>
    <edge id="3to4" from="3" to="4" priority="5">
        <lane id="3to4_0" index="0" speed="17.90" length="87.17" shape="102.43,188.80 189.60,188.80"/>
        <lane id="3to4_1" index="1" speed="17.90" length="87.17" shape="102.43,192.00 189.60,192.00"/>
        <lane id="3to4_2" index="2" speed="17.90" length="87.17" shape="102.43,195.20 189.60,195.20"/>
        <lane id="3to4_3" index="3" speed="17.90" length="87.17" shape="102.43,198.40 189.60,198.40"/>
    </edge>
    <edge id="4to3" from="4" to="3" priority="5">
        <lane id="4to3_0" index="0" speed="13.90" length="87.17" shape="189.60,211.20 102.43,211.20"/>
        <lane id="4to3_1" index="1" speed="13.90" length="87.17" shape="189.60,208.00 102.43,208.00"/>
        <lane id="4to3_2" index="2" speed="13.90" length="87.17" shape="189.60,204.80 102.43,204.80"/>
        <lane id="4to3_3" index="3" speed="13.90" length="87.17" shape="189.60,201.60 102.43,201.60"/>
    </edge>
    <edge id="4to5" from="4" to="5" priority="1">
        <lane id="4to5_0" index="0" speed="17.90" length="72.80" shape="195.20,183.20 195.20,110.40"/>
        <lane id="4to5_1" index="1" speed="17.90" length="72.80" shape="198.40,183.20 198.40,110.40"/>
    </edge>
    <edge id="5to2" from="5" to="2" priority="3">
        <lane id="5to2_0" index="0" speed="17.90" length="165.62" shape="189.60,104.80 23.98,104.80"/>
        <lane id="5to2_1" index="1" speed="17.90" length="165.62" shape="189.60,101.60 23.98,101.60"/>
    </edge>
    <edge id="5to4" from="5" to="4" priority="1">
        <lane id="5to4_0" index="0" speed="17.90" length="72.80" shape="204.80,110.40 204.80,183.20"/>
        <lane id="5to4_1" index="1" speed="17.90" length="72.80" shape="201.60,110.40 201.60,183.20"/>
    </edge>
    <edge id="5to6" from="5" to="6" priority="1">
        <lane id="5to6_0" index="0" speed="17.90" length="74.15" shape="195.20,89.60 195.20,15.45"/>
        <lane id="5to6_1" index="1" speed="17.90" length="74.15" shape="198.40,89.60 198.40,15.45"/>
    </edge>
    <edge id="6to1" from="6" to="1" priority="4">
        <lane id="6to1_0" index="0" speed="17.90" length="243.42" shape="192.47,14.32 20.35,186.44"/>
        <lane id="6to1_1" index="1" speed="17.90" length="243.42" shape="190.21,12.06 18.09,184.18"/>
    </edge>
    <edge id="6to5" from="6" to="5" priority="1">
        <lane id="6to5_0" index="0" speed="17.90" length="74.15" shape="204.80,15.45 204.80,89.60"/>
        <lane id="6to5_1" index="1" speed="17.90" length="74.15" shape="201.60,15.45 201.60,89.60"/>
    </edge>

    <junction id="1" type="priority" x="0.00" y="200.00" incLanes="6to1_0 6to1_1 2to1_0 2to1_1 2to1_2" intLanes=":1_0_0 :1_0_1 :1_0_2 :1_3_0 :1_3_1" shape="21.48,187.57 12.43,178.52 10.86,179.65 10.31,179.64 9.91,179.26 9.68,178.49 9.60,177.35 -9.60,177.35 -8.74,189.11 -6.15,196.84 -1.83,200.56 4.21,200.25 11.98,195.92">
        <request index="0" response="00000" foes="00000" cont="0"/>
        <request index="1" response="00000" foes="00000" cont="0"/>
        <request index="2" response="00000" foes="00000" cont="0"/>
        <request index="3" response="00000" foes="00000" cont="0"/>
        <request index="4" response="00000" foes="00000" cont="0"/>
    </junction>
    <junction id="2" type="priority" x="0.00" y="100.00" incLanes="1to2_0 1to2_1 1to2_2 3to2_0 3to2_1 3to2_2 5to2_0 5to2_1" intLanes=":2_0_0 :2_0_1 :2_2_0 :2_2_1 :2_4_0 :2_5_0 :2_6_0 :2_6_1 :2_8_0 :2_9_0 :2_10_0 :2_10_1 :2_12_0" shape="-9.60,127.18 9.60,127.18 9.91,125.27 10.31,124.88 10.86,124.88 11.56,125.25 12.43,126.00 26.00,112.43 24.27,110.59 23.10,109.08 22.48,107.91 22.42,107.07 22.92,106.57 23.98,106.40 23.98,93.60 13.72,94.53 5.32,97.33 -1.21,101.99 -5.87,108.52 -8.67,116.92">
        <request index="0"  response="0000000000000" foes="1000011000000" cont="0"/>
        <request index="1"  response="0000000000000" foes="1000011000000" cont="0"/>
        <request index="2"  response="0110000000000" foes="0110111000000" cont="0"/>
        <request index="3"  response="0110000000000" foes="0110111000000" cont="0"/>
        <request index="4"  response="0110000000000" foes="0110000000000" cont="0"/>
        <request index="5"  response="0000000000000" foes="0000000000000" cont="0"/>
        <request index="6"  response="0110000001111" foes="1110000001111" cont="0"/>
        <request index="7"  response="0110000001111" foes="1110000001111" cont="0"/>
        <request index="8"  response="0000000001100" foes="0000000001100" cont="0"/>
        <request index="9"  response="0000000000000" foes="0000000000000" cont="0"/>
        <request index="10" response="0000000000000" foes="0000011011100" cont="0"/>
        <request index="11" response="0000000000000" foes="0000011011100" cont="0"/>
        <request index="12" response="0000011000011" foes="0000011000011" cont="0"/>
    </junction>
    <junction id="3" type="priority" x="100.00" y="200.00" incLanes="4to3_0 4to3_1 4to3_2 4to3_3 2to3_0 2to3_1 2to3_2" intLanes=":3_0_0 :3_0_1 :3_0_2 :3_3_0 :3_3_1 :3_3_2 :3_3_3" shape="102.43,212.80 102.43,187.20 101.38,187.07 100.90,186.91 100.44,186.68 100.01,186.39 99.60,186.03 86.03,199.60 90.15,203.64 93.72,206.94 96.73,209.50 99.18,211.33 101.09,212.43">
        <request index="0" response="0000000" foes="0000000" cont="0"/>
        <request index="1" response="0000000" foes="0000000" cont="0"/>
        <request index="2" response="0000000" foes="0000000" cont="0"/>
        <request index="3" response="0000000" foes="0000000" cont="0"/>
        <request index="4" response="0000000" foes="0000000" cont="0"/>
        <request index="5" response="0000000" foes="0000000" cont="0"/>
        <request index="6" response="0000000" foes="0000000" cont="0"/>
    </junction>
    <junction id="4" type="priority" x="200.00" y="200.00" incLanes="5to4_0 5to4_1 3to4_0 3to4_1 3to4_2 3to4_3" intLanes=":4_0_0 :4_0_1 :4_0_2 :4_0_3 :4_4_0 :4_4_1" shape="206.40,183.20 193.60,183.20 193.16,185.42 192.60,186.20 191.82,186.76 190.82,187.09 189.60,187.20 189.60,212.80 194.73,211.98 198.93,209.51 202.20,205.40 204.53,199.64 205.93,192.24">
        <request index="0" response="000000" foes="000000" cont="0"/>
        <request index="1" response="000000" foes="000000" cont="0"/>
        <request index="2" response="000000" foes="000000" cont="0"/>
        <request index="3" response="000000" foes="000000" cont="0"/>
        <request index="4" response="000000" foes="000000" cont="0"/>
        <request index="5" response="000000" foes="000000" cont="0"/>
    </junction>
    <junction id="5" type="priority" x="200.00" y="100.00" incLanes="4to5_0 4to5_1 6to5_0 6to5_1 2to5_0 2to5_1" intLanes=":5_0_0 :5_0_1 :5_2_0 :5_2_1 :5_4_0 :5_5_0 :5_5_1 :5_7_0 :5_8_0 :5_9_0 :5_9_1 :5_11_0 :5_12_0" shape="193.60,110.40 206.40,110.40 206.40,89.60 193.60,89.60 193.16,91.82 192.60,92.60 191.82,93.16 190.82,93.49 189.60,93.60 189.60,106.40 191.82,106.84 192.60,107.40 193.16,108.18 193.49,109.18">
        <request index="0"  response="0000000000000" foes="1000010000000" cont="0"/>
        <request index="1"  response="0000000000000" foes="1000010000000" cont="0"/>
        <request index="2"  response="0111000000000" foes="0111110000000" cont="0"/>
        <request index="3"  response="0111000000000" foes="0111110000000" cont="0"/>
        <request index="4"  response="0100001100000" foes="0100001100000" cont="0"/>
        <request index="5"  response="0100000000000" foes="0100000010000" cont="0"/>
        <request index="6"  response="0100000000000" foes="0100000010000" cont="0"/>
        <request index="7"  response="0100000001111" foes="1100000001111" cont="0"/>
        <request index="8"  response="0011000001100" foes="0011000001100" cont="0"/>
        <request index="9"  response="0000000000000" foes="0000100001100" cont="0"/>
        <request index="10" response="0000000000000" foes="0000100001100" cont="0"/>
        <request index="11" response="0000000000000" foes="0000011111100" cont="0"/>
        <request index="12" response="0000010000011" foes="0000010000011" cont="0"/>
    </junction>
    <junction id="6" type="priority" x="200.00" y="0.00" incLanes="5to6_0 5to6_1 1to6_0 1to6_1" intLanes=":6_0_0 :6_0_1 :6_2_0 :6_2_1" shape="193.60,15.45 206.40,15.45 205.79,6.62 203.97,0.71 200.94,-2.26 196.69,-2.31 191.23,0.58 184.55,6.40">
        <request index="0" response="0000" foes="0000" cont="0"/>
        <request index="1" response="0000" foes="0000" cont="0"/>
        <request index="2" response="0000" foes="0000" cont="0"/>
        <request index="3" response="0000" foes="0000" cont="0"/>
    </junction>

    <connection from="1to2" to="2to5" fromLane="0" toLane="0" via=":2_0_0" dir="L" state="M"/>
    <connection from="1to2" to="2to5" fromLane="1" toLane="1" via=":2_0_1" dir="L" state="M"/>
    <connection from="1to2" to="2to3" fromLane="2" toLane="1" via=":2_2_0" dir="l" state="m"/>
    <connection from="1to2" to="2to3" fromLane="2" toLane="2" via=":2_2_1" dir="l" state="m"/>
    <connection from="1to2" to="2to1" fromLane="2" toLane="2" via=":2_4_0" dir="t" state="m"/>
    <connection from="1to6" to="6to5" fromLane="0" toLane="0" via=":6_2_0" dir="l" state="M"/>
    <connection from="1to6" to="6to5" fromLane="1" toLane="1" via=":6_2_1" dir="l" state="M"/>
    <connection from="2to1" to="1to6" fromLane="0" toLane="0" via=":1_3_0" dir="r" state="M"/>
    <connection from="2to1" to="1to6" fromLane="1" toLane="1" via=":1_3_1" dir="r" state="M"/>
    <connection from="2to3" to="3to4" fromLane="0" toLane="0" via=":3_3_0" dir="r" state="M"/>
    <connection from="2to3" to="3to4" fromLane="1" toLane="1" via=":3_3_1" dir="r" state="M"/>
    <connection from="2to3" to="3to4" fromLane="2" toLane="2" via=":3_3_2" dir="r" state="M"/>
    <connection from="2to3" to="3to4" fromLane="2" toLane="3" via=":3_3_3" dir="r" state="M"/>
    <connection from="2to5" to="5to6" fromLane="0" toLane="0" via=":5_9_0" dir="r" state="M"/>
    <connection from="2to5" to="5to6" fromLane="1" toLane="1" via=":5_9_1" dir="r" state="M"/>
    <connection from="2to5" to="5to4" fromLane="1" toLane="1" via=":5_11_0" dir="l" state="M"/>
    <connection from="2to5" to="5to2" fromLane="1" toLane="1" via=":5_12_0" dir="t" state="m"/>
    <connection from="3to2" to="2to1" fromLane="0" toLane="0" via=":2_5_0" dir="r" state="M"/>
    <connection from="3to2" to="2to5" fromLane="1" toLane="0" via=":2_6_0" dir="l" state="m"/>
    <connection from="3to2" to="2to5" fromLane="2" toLane="1" via=":2_6_1" dir="l" state="m"/>
    <connection from="3to2" to="2to3" fromLane="2" toLane="2" via=":2_8_0" dir="t" state="m"/>
    <connection from="3to4" to="4to5" fromLane="0" toLane="0" via=":4_4_0" dir="r" state="M"/>
    <connection from="3to4" to="4to5" fromLane="1" toLane="1" via=":4_4_1" dir="r" state="M"/>
    <connection from="4to3" to="3to2" fromLane="0" toLane="0" via=":3_0_0" dir="l" state="M"/>
    <connection from="4to3" to="3to2" fromLane="1" toLane="1" via=":3_0_1" dir="l" state="M"/>
    <connection from="4to3" to="3to2" fromLane="2" toLane="2" via=":3_0_2" dir="l" state="M"/>
    <connection from="4to5" to="5to2" fromLane="0" toLane="0" via=":5_0_0" dir="r" state="M"/>
    <connection from="4to5" to="5to2" fromLane="1" toLane="1" via=":5_0_1" dir="r" state="M"/>
    <connection from="4to5" to="5to6" fromLane="1" toLane="0" via=":5_2_0" dir="s" state="m"/>
    <connection from="4to5" to="5to6" fromLane="1" toLane="1" via=":5_2_1" dir="s" state="m"/>
    <connection from="4to5" to="5to4" fromLane="1" toLane="1" via=":5_4_0" dir="t" state="m"/>
    <connection from="5to2" to="2to3" fromLane="0" toLane="0" via=":2_9_0" dir="r" state="M"/>
    <connection from="5to2" to="2to1" fromLane="0" toLane="1" via=":2_10_0" dir="R" state="M"/>
    <connection from="5to2" to="2to1" fromLane="1" toLane="2" via=":2_10_1" dir="R" state="M"/>
    <connection from="5to2" to="2to5" fromLane="1" toLane="1" via=":2_12_0" dir="t" state="m"/>
    <connection from="5to4" to="4to3" fromLane="0" toLane="0" via=":4_0_0" dir="l" state="M"/>
    <connection from="5to4" to="4to3" fromLane="1" toLane="1" via=":4_0_1" dir="l" state="M"/>
    <connection from="5to4" to="4to3" fromLane="1" toLane="2" via=":4_0_2" dir="l" state="M"/>
    <connection from="5to4" to="4to3" fromLane="1" toLane="3" via=":4_0_3" dir="l" state="M"/>
    <connection from="5to6" to="6to1" fromLane="0" toLane="0" via=":6_0_0" dir="r" state="M"/>
    <connection from="5to6" to="6to1" fromLane="1" toLane="1" via=":6_0_1" dir="r" state="M"/>
    <connection from="6to1" to="1to2" fromLane="0" toLane="0" via=":1_0_0" dir="l" state="M"/>
    <connection from="6to1" to="1to2" fromLane="1" toLane="1" via=":1_0_1" dir="l" state="M"/>
    <connection from="6to1" to="1to2" fromLane="1" toLane="2" via=":1_0_2" dir="l" state="M"/>
    <connection from="6to5" to="5to4" fromLane="0" toLane="0" via=":5_5_0" dir="s" state="m"/>
    <connection from="6to5" to="5to4" fromLane="1" toLane="1" via=":5_5_1" dir="s" state="m"/>
    <connection from="6to5" to="5to2" fromLane="1" toLane="1" via=":5_7_0" dir="l" state="m"/>
    <connection from="6to5" to="5to6" fromLane="1" toLane="1" via=":5_8_0" dir="t" state="m"/>

    <connection from=":1_0" to="1to2" fromLane="0" toLane="0" dir="l" state="M"/>
    <connection from=":1_0" to="1to2" fromLane="1" toLane="1" dir="l" state="M"/>
    <connection from=":1_0" to="1to2" fromLane="2" toLane="2" dir="l" state="M"/>
    <connection from=":1_3" to="1to6" fromLane="0" toLane="0" dir="r" state="M"/>
    <connection from=":1_3" to="1to6" fromLane="1" toLane="1" dir="r" state="M"/>
    <connection from=":2_0" to="2to5" fromLane="0" toLane="0" dir="L" state="M"/>
    <connection from=":2_0" to="2to5" fromLane="1" toLane="1" dir="L" state="M"/>
    <connection from=":2_2" to="2to3" fromLane="0" toLane="1" dir="l" state="M"/>
    <connection from=":2_2" to="2to3" fromLane="1" toLane="2" dir="l" state="M"/>
    <connection from=":2_4" to="2to1" fromLane="0" toLane="2" dir="t" state="M"/>
    <connection from=":2_5" to="2to1" fromLane="0" toLane="0" dir="r" state="M"/>
    <connection from=":2_6" to="2to5" fromLane="0" toLane="0" dir="l" state="M"/>
    <connection from=":2_6" to="2to5" fromLane="1" toLane="1" dir="l" state="M"/>
    <connection from=":2_8" to="2to3" fromLane="0" toLane="2" dir="t" state="M"/>
    <connection from=":2_9" to="2to3" fromLane="0" toLane="0" dir="r" state="M"/>
    <connection from=":2_10" to="2to1" fromLane="0" toLane="1" dir="R" state="M"/>
    <connection from=":2_10" to="2to1" fromLane="1" toLane="2" dir="R" state="M"/>
    <connection from=":2_12" to="2to5" fromLane="0" toLane="1" dir="t" state="M"/>
    <connection from=":3_0" to="3to2" fromLane="0" toLane="0" dir="l" state="M"/>
    <connection from=":3_0" to="3to2" fromLane="1" toLane="1" dir="l" state="M"/>
    <connection from=":3_0" to="3to2" fromLane="2" toLane="2" dir="l" state="M"/>
    <connection from=":3_3" to="3to4" fromLane="0" toLane="0" dir="r" state="M"/>
    <connection from=":3_3" to="3to4" fromLane="1" toLane="1" dir="r" state="M"/>
    <connection from=":3_3" to="3to4" fromLane="2" toLane="2" dir="r" state="M"/>
    <connection from=":3_3" to="3to4" fromLane="3" toLane="3" dir="r" state="M"/>
    <connection from=":4_0" to="4to3" fromLane="0" toLane="0" dir="l" state="M"/>
    <connection from=":4_0" to="4to3" fromLane="1" toLane="1" dir="l" state="M"/>
    <connection from=":4_0" to="4to3" fromLane="2" toLane="2" dir="l" state="M"/>
    <connection from=":4_0" to="4to3" fromLane="3" toLane="3" dir="l" state="M"/>
    <connection from=":4_4" to="4to5" fromLane="0" toLane="0" dir="r" state="M"/>
    <connection from=":4_4" to="4to5" fromLane="1" toLane="1" dir="r" state="M"/>
    <connection from=":5_0" to="5to2" fromLane="0" toLane="0" dir="r" state="M"/>
    <connection from=":5_0" to="5to2" fromLane="1" toLane="1" dir="r" state="M"/>
    <connection from=":5_2" to="5to6" fromLane="0" toLane="0" dir="s" state="M"/>
    <connection from=":5_2" to="5to6" fromLane="1" toLane="1" dir="s" state="M"/>
    <connection from=":5_4" to="5to4" fromLane="0" toLane="1" dir="t" state="M"/>
    <connection from=":5_5" to="5to4" fromLane="0" toLane="0" dir="s" state="M"/>
    <connection from=":5_5" to="5to4" fromLane="1" toLane="1" dir="s" state="M"/>
    <connection from=":5_7" to="5to2" fromLane="0" toLane="1" dir="l" state="M"/>
    <connection from=":5_8" to="5to6" fromLane="0" toLane="1" dir="t" state="M"/>
    <connection from=":5_9" to="5to6" fromLane="0" toLane="0" dir="r" state="M"/>
    <connection from=":5_9" to="5to6" fromLane="1" toLane="1" dir="r" state="M"/>
    <connection from=":5_11" to="5to4" fromLane="0" toLane="1" dir="l" state="M"/>
    <connection from=":5_12" to="5to2" fromLane="0" toLane="1" dir="t" state="M"/>
    <connection from=":6_0" to="6to1" fromLane="0" toLane="0" dir="r" state="M"/>
    <connection from=":6_0" to="6to1" fromLane="1" toLane="1" dir="r" state="M"/>
    <connection from=":6_2" to="6to5" fromLane="0" toLane="0" dir="l" state="M"/>
    <connection from=":6_2" to="6to5" fromLane="1" toLane="1" dir="l" state="M"/>

</net>
