<?xml version="1.0" encoding="UTF-8"?>

<!-- generated on 2025-04-19 12:49:32 by Eclipse SUMO netconvert Version 1.22.0
<netconvertConfiguration xmlns:xsi="http://www.w3.org/2001/XMLSchema-instance" xsi:noNamespaceSchemaLocation="http://sumo.dlr.de/xsd/netconvertConfiguration.xsd">

    <input>
        <node-files value="nodes.xml"/>
        <edge-files value="edges.xml"/>
    </input>

    <output>
        <output-file value="network.net.net.xml"/>
    </output>

</netconvertConfiguration>
-->

<net version="1.20" junctionCornerDetail="5" limitTurnSpeed="5.50" xmlns:xsi="http://www.w3.org/2001/XMLSchema-instance" xsi:noNamespaceSchemaLocation="http://sumo.dlr.de/xsd/net_file.xsd">

    <location netOffset="0.00,0.00" convBoundary="0.00,0.00,100.00,100.00" origBoundary="0.00,0.00,100.00,100.00" projParameter="!"/>

    <edge id="e1" from="n1" to="n3" priority="1">
        <lane id="e1_0" index="0" speed="13.89" length="106.30" shape="-1.43,99.28 46.11,4.20"/>
    </edge>
    <edge id="e2" from="n2" to="n3" priority="1">
        <lane id="e2_0" index="0" speed="13.89" length="107.90" shape="98.57,100.72 50.31,4.20"/>
    </edge>

    <junction id="n1" type="dead_end" x="0.00" y="100.00" incLanes="" intLanes="" shape="-0.00,100.00 -2.86,98.57"/>
    <junction id="n2" type="dead_end" x="100.00" y="100.00" incLanes="" intLanes="" shape="100.00,100.00 97.14,101.43"/>
    <junction id="n3" type="dead_end" x="50.00" y="0.00" incLanes="e2_0 e1_0" intLanes="" shape="48.88,4.92 51.74,3.49 50.57,1.53 49.39,0.35 48.21,-0.04 47.03,0.35 45.86,1.53 44.68,3.49 47.54,4.92 47.99,4.32 48.21,4.25 48.43,4.32 48.66,4.55"/>

</net>
