<routes>
    <vType id="car" accel="1.0" decel="5.0" maxSpeed="17.9" length="5" />

    <!-- Define routes -->
    <route id="route1" edges="1to2 2to3 3to4" />
    <route id="route2" edges="4to3 3to2 2to1" />
    <route id="route3" edges="1to4 4to5" />
    <route id="route4" edges="5to4 4to1" />
    <route id="route5" edges="1to2 2to3 3to5 5to4" />
    <route id="route6" edges="4to5 5to3 3to2" />
    <route id="route7" edges="1to4 4to3 3to2" />
    <route id="route8" edges="2to3 3to4 4to1" />
    <route id="route9" edges="3to4 4to5" />
    <route id="route10" edges="5to3 3to2 2to1" />

    <!-- Assign vehicles to routes -->
    <vehicle id="vehicle0" type="car" route="route1" depart="1" />
    <vehicle id="vehicle1" type="car" route="route2" depart="1" />
    <vehicle id="vehicle2" type="car" route="route3" depart="1" />
    <vehicle id="vehicle3" type="car" route="route4" depart="1" />
    <vehicle id="vehicle4" type="car" route="route5" depart="1" />
    <vehicle id="vehicle5" type="car" route="route6" depart="1" />
    <vehicle id="vehicle6" type="car" route="route7" depart="1" />
    <vehicle id="vehicle7" type="car" route="route8" depart="1" />
    <vehicle id="vehicle8" type="car" route="route9" depart="1" />
    <vehicle id="vehicle9" type="car" route="route10" depart="1" />

    <!-- Duplicate assignments for additional vehicles -->
    <vehicle id="vehicle10" type="car" route="route1" depart="2" />
    <vehicle id="vehicle11" type="car" route="route2" depart="2" />
    <vehicle id="vehicle12" type="car" route="route3" depart="2" />
    <vehicle id="vehicle13" type="car" route="route4" depart="2" />
    <vehicle id="vehicle14" type="car" route="route5" depart="2" />
    <vehicle id="vehicle15" type="car" route="route6" depart="2" />
    <vehicle id="vehicle16" type="car" route="route7" depart="2" />
    <vehicle id="vehicle17" type="car" route="route8" depart="2" />
    <vehicle id="vehicle18" type="car" route="route9" depart="2" />
    <vehicle id="vehicle19" type="car" route="route10" depart="2" />

    <vehicle id="vehicle20" type="car" route="route1" depart="3" />
    <vehicle id="vehicle21" type="car" route="route2" depart="3" />
    <vehicle id="vehicle22" type="car" route="route3" depart="3" />
    <vehicle id="vehicle23" type="car" route="route4" depart="3" />
    <vehicle id="vehicle24" type="car" route="route5" depart="3" />
    <vehicle id="vehicle25" type="car" route="route6" depart="3" />
    <vehicle id="vehicle26" type="car" route="route7" depart="3" />
    <vehicle id="vehicle27" type="car" route="route8" depart="3" />
    <vehicle id="vehicle28" type="car" route="route9" depart="3" />
    <vehicle id="vehicle29" type="car" route="route10" depart="3" />

</routes>
