<configuration>
<input>
<net-file value="network_config.xml" />
<route-files value="routes.rou.xml" />
</input>
</configuration>