<configuration>
<input>
<net-file value="new_network.net.xml" />
<route-files value="routes.rou.xml" />
</input>
</configuration>